Version 4
SHEET 1 3712 1124
WIRE 560 48 560 32
WIRE 640 48 560 48
WIRE 560 64 560 48
WIRE 640 272 640 48
WIRE 656 272 640 272
WIRE 832 288 720 288
WIRE 368 304 272 304
WIRE 656 304 368 304
WIRE 368 336 368 304
WIRE 1472 400 1440 400
WIRE 1488 400 1472 400
WIRE 1840 400 1840 368
WIRE 1840 400 1712 400
WIRE 832 432 832 288
WIRE 880 432 832 432
WIRE 880 448 832 448
WIRE 992 448 944 448
WIRE 1136 448 1136 432
WIRE 1136 448 1072 448
WIRE 1296 448 1136 448
WIRE 880 464 848 464
WIRE 1488 464 1360 464
WIRE 1728 464 1712 464
WIRE 1744 464 1728 464
WIRE 1840 464 1840 400
WIRE 1840 464 1824 464
WIRE 848 480 848 464
WIRE 880 480 848 480
WIRE 1296 480 1232 480
WIRE 848 496 848 480
WIRE 880 496 848 496
WIRE 848 512 848 496
WIRE 896 512 896 496
WIRE 896 512 848 512
WIRE 1488 528 1456 528
WIRE 1728 528 1728 464
WIRE 1728 528 1712 528
WIRE 1824 528 1728 528
WIRE 896 544 896 512
WIRE 1056 544 1040 544
WIRE 1232 544 1232 480
WIRE 1232 544 1216 544
WIRE 1248 544 1232 544
WIRE 1328 544 1328 496
WIRE 1344 544 1328 544
WIRE 560 576 560 560
WIRE 656 576 560 576
WIRE 560 592 560 576
WIRE 832 592 832 448
WIRE 832 592 720 592
WIRE 1744 592 1712 592
WIRE 1824 592 1824 528
WIRE 656 608 640 608
WIRE 1472 688 1472 400
WIRE 1744 688 1744 656
WIRE 1744 688 1472 688
WIRE 1824 688 1824 656
WIRE 1824 688 1744 688
WIRE 640 720 640 608
WIRE 640 736 640 720
WIRE 1456 768 1456 528
FLAG 560 144 0
FLAG 560 -128 0
FLAG 896 544 0
FLAG 688 320 0
FLAG 1344 544 0
FLAG 1040 544 0
FLAG 1136 368 0
FLAG 1440 400 0
FLAG 560 480 0
FLAG 560 752 0
FLAG 720 720 0
FLAG 688 624 0
FLAG 1456 768 Output
IOPIN 1456 768 Out
FLAG 272 304 Input_1
IOPIN 272 304 In
FLAG 640 736 Input_2
IOPIN 640 736 In
FLAG 80 832 0
FLAG 80 752 +12V
FLAG 688 560 +12V
FLAG 688 256 +12V
FLAG 1328 432 +12V
FLAG 1840 368 +12V
FLAG 368 416 0
SYMBOL res 544 48 R0
SYMATTR InstName R1
SYMATTR Value 1k
SYMBOL res 544 -64 R0
SYMATTR InstName R2
SYMATTR Value 1k
SYMBOL voltage 560 -32 M180
WINDOW 0 24 96 Left 2
WINDOW 3 24 16 Left 2
WINDOW 123 0 0 Left 0
WINDOW 39 0 0 Left 0
SYMATTR InstName V1
SYMATTR Value 1
SYMBOL voltage 368 320 R0
WINDOW 0 83 210 VBottom 2
WINDOW 3 55 207 VBottom 2
WINDOW 123 0 0 Left 0
WINDOW 39 0 0 Left 0
SYMATTR InstName V2
SYMATTR Value PULSE(0 1 1 0.5 0.5 0 14 2)
SYMBOL res 1088 432 R90
WINDOW 0 0 56 VBottom 2
WINDOW 3 32 56 VTop 2
SYMATTR InstName R5
SYMATTR Value 1k
SYMBOL res 1232 528 M90
WINDOW 0 0 56 VBottom 2
WINDOW 3 32 56 VTop 2
SYMATTR InstName R6
SYMATTR Value 1k
SYMBOL res 1120 528 M90
WINDOW 0 0 56 VBottom 2
WINDOW 3 32 56 VTop 2
SYMATTR InstName R7
SYMATTR Value 1k
SYMBOL voltage 1152 544 R90
WINDOW 0 24 96 Left 2
WINDOW 3 24 16 Left 2
WINDOW 123 0 0 Left 0
WINDOW 39 0 0 Left 0
SYMATTR InstName V7
SYMATTR Value 1.98
SYMBOL Comparators\\LT1720 1328 400 R0
SYMATTR InstName U2
SYMBOL cap 1120 368 R0
SYMATTR InstName C1
SYMATTR Value 0.0001
SYMBOL Digital\\and 912 400 R0
SYMATTR InstName A2
SYMBOL Misc\\NE555 1600 496 R0
SYMATTR InstName U5
SYMBOL res 1840 448 R90
WINDOW 0 0 56 VBottom 2
WINDOW 3 32 56 VTop 2
SYMATTR InstName R9
SYMATTR Value 1Meg
SYMBOL cap 1728 592 R0
SYMATTR InstName C4
SYMATTR Value 0.01µ
SYMBOL cap 1808 592 R0
SYMATTR InstName C5
SYMATTR Value 9µ
SYMBOL res 544 576 M180
WINDOW 0 36 76 Left 2
WINDOW 3 36 40 Left 2
SYMATTR InstName R3
SYMATTR Value 1k
SYMBOL res 544 688 M180
WINDOW 0 36 76 Left 2
WINDOW 3 36 40 Left 2
SYMATTR InstName R4
SYMATTR Value 1k
SYMBOL voltage 560 656 R0
WINDOW 0 24 96 Left 2
WINDOW 3 24 16 Left 2
WINDOW 123 0 0 Left 0
WINDOW 39 0 0 Left 0
SYMATTR InstName V4
SYMATTR Value 1
SYMBOL voltage 624 720 M90
WINDOW 0 53 93 VBottom 2
WINDOW 3 74 94 VBottom 2
WINDOW 123 0 0 Left 0
WINDOW 39 0 0 Left 0
SYMATTR InstName V5
SYMATTR Value 1
SYMBOL Comparators\\LT1720 688 528 R0
WINDOW 0 41 119 Left 2
SYMATTR InstName U1
SYMBOL voltage 80 736 R0
WINDOW 123 0 0 Left 0
WINDOW 39 0 0 Left 0
SYMATTR InstName V8
SYMATTR Value 12V
SYMBOL Comparators\\LT1720 688 224 R0
WINDOW 0 41 119 Left 2
SYMATTR InstName U3
TEXT 512 904 Left 2 !.tran 30
