Version 4
SHEET 1 3712 1124
WIRE 560 48 560 32
WIRE 640 48 560 48
WIRE 560 64 560 48
WIRE 640 272 640 48
WIRE 656 272 640 272
WIRE 832 288 720 288
WIRE 368 304 272 304
WIRE 656 304 368 304
WIRE 368 336 368 304
WIRE 832 432 832 288
WIRE 928 432 832 432
WIRE 1072 432 1008 432
WIRE 1168 432 1120 432
WIRE 1296 432 1248 432
WIRE 2000 512 1968 512
WIRE 2016 512 2000 512
WIRE 2368 512 2368 480
WIRE 2368 512 2240 512
WIRE 656 528 656 512
WIRE 752 528 656 528
WIRE 656 544 656 528
WIRE 928 544 816 544
WIRE 1072 544 1072 432
WIRE 1072 544 1008 544
WIRE 1120 544 1120 432
WIRE 1120 544 1072 544
WIRE 1152 544 1120 544
WIRE 752 560 736 560
WIRE 1296 560 1296 432
WIRE 1296 560 1216 560
WIRE 1520 560 1296 560
WIRE 1664 560 1664 544
WIRE 1664 560 1600 560
WIRE 1824 560 1664 560
WIRE 1152 576 1104 576
WIRE 2016 576 1888 576
WIRE 2256 576 2240 576
WIRE 2272 576 2256 576
WIRE 2368 576 2368 512
WIRE 2368 576 2352 576
WIRE 1824 592 1760 592
WIRE 1104 624 1104 576
WIRE 1184 624 1184 592
WIRE 1184 624 1104 624
WIRE 1104 640 1104 624
WIRE 2016 640 1984 640
WIRE 2256 640 2256 576
WIRE 2256 640 2240 640
WIRE 2352 640 2256 640
WIRE 1584 656 1568 656
WIRE 1760 656 1760 592
WIRE 1760 656 1744 656
WIRE 1776 656 1760 656
WIRE 1856 656 1856 608
WIRE 1872 656 1856 656
WIRE 736 672 736 560
WIRE 736 688 736 672
WIRE 2272 704 2240 704
WIRE 2352 704 2352 640
WIRE 2000 800 2000 512
WIRE 2272 800 2272 768
WIRE 2272 800 2000 800
WIRE 2352 800 2352 768
WIRE 2352 800 2272 800
WIRE 1984 880 1984 640
FLAG 560 144 0
FLAG 560 -128 0
FLAG 688 320 0
FLAG 1872 656 0
FLAG 1568 656 0
FLAG 1664 480 0
FLAG 1968 512 0
FLAG 656 432 0
FLAG 656 704 0
FLAG 816 672 0
FLAG 784 576 0
FLAG 1984 880 Output
IOPIN 1984 880 Out
FLAG 272 304 Input_1
IOPIN 272 304 In
FLAG 736 688 Input_2
IOPIN 736 688 In
FLAG 80 832 0
FLAG 80 752 +12V
FLAG 784 512 +12V
FLAG 688 256 +12V
FLAG 1856 544 +12V
FLAG 2368 480 +12V
FLAG 368 416 0
FLAG 1104 640 0
FLAG 1184 528 +12V
SYMBOL res 544 48 R0
SYMATTR InstName R1
SYMATTR Value 1k
SYMBOL res 544 -64 R0
SYMATTR InstName R2
SYMATTR Value 1k
SYMBOL voltage 560 -32 M180
WINDOW 0 24 96 Left 2
WINDOW 3 24 16 Left 2
WINDOW 123 0 0 Left 0
WINDOW 39 0 0 Left 0
SYMATTR InstName V1
SYMATTR Value 1
SYMBOL voltage 368 320 R0
WINDOW 0 83 210 VBottom 2
WINDOW 3 55 207 VBottom 2
WINDOW 123 0 0 Left 0
WINDOW 39 0 0 Left 0
SYMATTR InstName V2
SYMATTR Value PULSE(0 1 1 0.5 0.5 0 14 2)
SYMBOL res 1616 544 R90
WINDOW 0 0 56 VBottom 2
WINDOW 3 32 56 VTop 2
SYMATTR InstName R5
SYMATTR Value 1k
SYMBOL res 1760 640 M90
WINDOW 0 0 56 VBottom 2
WINDOW 3 32 56 VTop 2
SYMATTR InstName R6
SYMATTR Value 1k
SYMBOL res 1648 640 M90
WINDOW 0 0 56 VBottom 2
WINDOW 3 32 56 VTop 2
SYMATTR InstName R7
SYMATTR Value 1k
SYMBOL voltage 1680 656 R90
WINDOW 0 24 96 Left 2
WINDOW 3 24 16 Left 2
WINDOW 123 0 0 Left 0
WINDOW 39 0 0 Left 0
SYMATTR InstName V7
SYMATTR Value 1.98
SYMBOL Comparators\\LT1720 1856 512 R0
SYMATTR InstName U2
SYMBOL cap 1648 480 R0
SYMATTR InstName C1
SYMATTR Value 0.0001
SYMBOL Misc\\NE555 2128 608 R0
SYMATTR InstName U5
SYMBOL res 2368 560 R90
WINDOW 0 0 56 VBottom 2
WINDOW 3 32 56 VTop 2
SYMATTR InstName R9
SYMATTR Value 1Meg
SYMBOL cap 2256 704 R0
SYMATTR InstName C4
SYMATTR Value 0.01µ
SYMBOL cap 2336 704 R0
SYMATTR InstName C5
SYMATTR Value 9µ
SYMBOL res 640 528 M180
WINDOW 0 36 76 Left 2
WINDOW 3 36 40 Left 2
SYMATTR InstName R3
SYMATTR Value 1k
SYMBOL res 640 640 M180
WINDOW 0 36 76 Left 2
WINDOW 3 36 40 Left 2
SYMATTR InstName R4
SYMATTR Value 1k
SYMBOL voltage 656 608 R0
WINDOW 0 24 96 Left 2
WINDOW 3 24 16 Left 2
WINDOW 123 0 0 Left 0
WINDOW 39 0 0 Left 0
SYMATTR InstName V4
SYMATTR Value 1
SYMBOL voltage 720 672 M90
WINDOW 0 53 93 VBottom 2
WINDOW 3 74 94 VBottom 2
WINDOW 123 0 0 Left 0
WINDOW 39 0 0 Left 0
SYMATTR InstName V5
SYMATTR Value 1
SYMBOL Comparators\\LT1720 784 480 R0
WINDOW 0 41 119 Left 2
SYMATTR InstName U1
SYMBOL voltage 80 736 R0
WINDOW 123 0 0 Left 0
WINDOW 39 0 0 Left 0
SYMATTR InstName V8
SYMATTR Value 12V
SYMBOL Comparators\\LT1720 688 224 R0
WINDOW 0 41 119 Left 2
SYMATTR InstName U3
SYMBOL OpAmps\\AD822 1184 496 R0
SYMATTR InstName U4
SYMBOL res 1024 416 R90
WINDOW 0 0 56 VBottom 2
WINDOW 3 32 56 VTop 2
SYMATTR InstName R8
SYMATTR Value 1k
SYMBOL res 1024 528 R90
WINDOW 0 0 56 VBottom 2
WINDOW 3 32 56 VTop 2
SYMATTR InstName R10
SYMATTR Value 1k
SYMBOL res 1264 416 R90
WINDOW 0 0 56 VBottom 2
WINDOW 3 32 56 VTop 2
SYMATTR InstName R11
SYMATTR Value 1k
TEXT 512 904 Left 2 !.tran 30
TEXT 896 680 Left 2 ;Can replace AD822 with other +12V capable Op-Amp
TEXT 720 136 Left 2 ;Can replace all LT1720 chips with other +12V capable comparators
TEXT 960 712 Left 2 ;Must be low noise, less than 25 nV/sqrt(Hz)
