Version 4
SHEET 1 3712 1124
WIRE 640 48 480 48
WIRE 480 96 480 48
WIRE 640 272 640 48
WIRE 656 272 640 272
WIRE 832 288 720 288
WIRE 1072 288 1072 256
WIRE 368 304 272 304
WIRE 656 304 368 304
WIRE 1616 304 1552 304
WIRE 368 336 368 304
WIRE 1616 336 1616 304
WIRE 832 432 832 288
WIRE 928 432 832 432
WIRE 1072 432 1072 368
WIRE 1072 432 992 432
WIRE 752 528 576 528
WIRE 928 544 816 544
WIRE 1072 544 1072 432
WIRE 1072 544 992 544
WIRE 1296 544 1072 544
WIRE 1440 544 1440 528
WIRE 1440 544 1376 544
WIRE 1552 544 1552 304
WIRE 1600 544 1552 544
WIRE 752 560 736 560
WIRE 1792 560 1664 560
WIRE 1440 576 1440 544
WIRE 1600 576 1440 576
WIRE 576 624 576 528
WIRE 1632 640 1632 592
WIRE 1648 640 1632 640
WIRE 736 672 736 560
WIRE 736 688 736 672
FLAG 688 320 0
FLAG 1648 640 0
FLAG 1440 464 0
FLAG 576 704 0
FLAG 816 672 0
FLAG 784 576 0
FLAG 1792 560 Output
IOPIN 1792 560 Out
FLAG 272 304 MotorSensor
IOPIN 272 304 In
FLAG 736 688 BrakeSensor
IOPIN 736 688 In
FLAG 80 832 0
FLAG 80 752 +5V
FLAG 784 512 +5V
FLAG 688 256 +5V
FLAG 1632 528 +5V
FLAG 368 416 0
FLAG 480 176 0
FLAG 1072 256 +5V
FLAG 1616 416 0
SYMBOL voltage 368 320 R0
WINDOW 0 83 210 VBottom 2
WINDOW 3 55 207 VBottom 2
WINDOW 123 0 0 Left 0
WINDOW 39 0 0 Left 0
SYMATTR InstName V2
SYMATTR Value PULSE(1.14 5 1 1 1)
SYMBOL res 1392 528 R90
WINDOW 0 0 56 VBottom 2
WINDOW 3 32 56 VTop 2
SYMATTR InstName R5
SYMATTR Value 200k
SYMBOL cap 1424 464 R0
SYMATTR InstName C1
SYMATTR Value 2µ
SYMBOL voltage 576 608 R0
WINDOW 0 24 96 Left 2
WINDOW 3 24 16 Left 2
WINDOW 123 0 0 Left 0
WINDOW 39 0 0 Left 0
SYMATTR InstName BrakeRef
SYMATTR Value 2.89V
SYMBOL voltage 720 672 M90
WINDOW 0 53 93 VBottom 2
WINDOW 3 74 94 VBottom 2
WINDOW 123 0 0 Left 0
WINDOW 39 0 0 Left 0
SYMATTR InstName V5
SYMATTR Value 5
SYMBOL voltage 80 736 R0
WINDOW 123 0 0 Left 0
WINDOW 39 0 0 Left 0
SYMATTR InstName Vsupply
SYMATTR Value 5V
SYMBOL voltage 480 80 R0
WINDOW 123 0 0 Left 0
WINDOW 39 0 0 Left 0
SYMATTR InstName MotorRef
SYMATTR Value 3.1
SYMBOL diode 992 416 R90
WINDOW 0 0 32 VBottom 2
WINDOW 3 32 32 VTop 2
SYMATTR InstName D1
SYMBOL diode 992 528 R90
WINDOW 0 0 32 VBottom 2
WINDOW 3 32 32 VTop 2
SYMATTR InstName D2
SYMBOL res 1056 272 R0
SYMATTR InstName R1
SYMATTR Value 10k
SYMBOL Comparators\\LT1720 688 224 R0
SYMATTR InstName U1
SYMBOL Comparators\\LT1720 784 480 R0
SYMATTR InstName U2
SYMBOL Comparators\\LT1720 1632 496 R0
SYMATTR InstName U3
SYMBOL voltage 1616 320 R0
WINDOW 123 0 0 Left 0
WINDOW 39 0 0 Left 0
SYMATTR InstName DelayRef
SYMATTR Value 4V
TEXT 512 904 Left 2 !.tran 5
TEXT 720 136 Left 2 ;Can replace all LT1720 chips with other +5V capable comparators
TEXT 1272 424 Left 2 ;tuned for 0.4ms delay
TEXT 968 600 Left 2 ;AND logic
TEXT 1768 376 Left 2 ;1 time constant has passed (slightly lower than that)
TEXT 720 168 Left 2 ;Must have low offset voltage (<5mV when above normal operating temperature)
TEXT 248 688 Left 2 ;see calcs spreadsheet -->
